  Version,9.2;

  Timestep,60;

  LifeCycleCost:Parameters,
    Life Cycle Cost Parameters,  !- Name
    EndOfYear,               !- Discounting Convention
    ConstantDollar,          !- Inflation Approach
    0.03,                    !- Real Discount Rate
    ,                        !- Nominal Discount Rate
    ,                        !- Inflation
    ,                        !- Base Date Month
    2011,                    !- Base Date Year
    ,                        !- Service Date Month
    2011,                    !- Service Date Year
    25,                      !- Length of Study Period in Years
    ,                        !- Tax rate
    None;                    !- Depreciation Method

  LifeCycleCost:UsePriceEscalation,
    U.S. Avg  Commercial-Electricity,  !- LCC Price Escalation Name
    Electricity,             !- Resource
    2011,                    !- Escalation Start Year
    January,                 !- Escalation Start Month
    0.9838,                  !- Year 1 Escalation
    0.9730,                  !- Year 2 Escalation
    0.9632,                  !- Year 3 Escalation
    0.9611,                  !- Year 4 Escalation
    0.9571,                  !- Year 5 Escalation
    0.9553,                  !- Year 6 Escalation
    0.9539,                  !- Year 7 Escalation
    0.9521,                  !- Year 8 Escalation
    0.9546,                  !- Year 9 Escalation
    0.9550,                  !- <none>
    0.9553,                  !- <none>
    0.9564,                  !- <none>
    0.9575,                  !- <none>
    0.9596,                  !- <none>
    0.9618,                  !- <none>
    0.9614,                  !- <none>
    0.9618,                  !- <none>
    0.9618,                  !- <none>
    0.9593,                  !- <none>
    0.9589,                  !- <none>
    0.9607,                  !- <none>
    0.9625,                  !- <none>
    0.9650,                  !- <none>
    0.9708,                  !- <none>
    0.9751,                  !- <none>
    0.9762,                  !- <none>
    0.9766,                  !- <none>
    0.9766,                  !- <none>
    0.9769,                  !- <none>
    0.9773;                  !- <none>

  LifeCycleCost:UsePriceEscalation,
    U.S. Avg  Commercial-Distillate Oil,  !- LCC Price Escalation Name
    FuelOil#1,               !- Resource
    2011,                    !- Escalation Start Year
    January,                 !- Escalation Start Month
    0.9714,                  !- Year 1 Escalation
    0.9730,                  !- Year 2 Escalation
    0.9942,                  !- Year 3 Escalation
    1.0164,                  !- Year 4 Escalation
    1.0541,                  !- Year 5 Escalation
    1.0928,                  !- Year 6 Escalation
    1.1267,                  !- Year 7 Escalation
    1.1580,                  !- Year 8 Escalation
    1.1792,                  !- Year 9 Escalation
    1.1967,                  !- <none>
    1.2200,                  !- <none>
    1.2333,                  !- <none>
    1.2566,                  !- <none>
    1.2709,                  !- <none>
    1.2826,                  !- <none>
    1.2985,                  !- <none>
    1.3102,                  !- <none>
    1.3250,                  !- <none>
    1.3261,                  !- <none>
    1.3282,                  !- <none>
    1.3324,                  !- <none>
    1.3356,                  !- <none>
    1.3431,                  !- <none>
    1.3510,                  !- <none>
    1.3568,                  !- <none>
    1.3606,                  !- <none>
    1.3637,                  !- <none>
    1.3674,                  !- <none>
    1.3706,                  !- <none>
    1.3743;                  !- <none>

  LifeCycleCost:UsePriceEscalation,
    U.S. Avg  Commercial-Residual Oil,  !- LCC Price Escalation Name
    FuelOil#2,               !- Resource
    2011,                    !- Escalation Start Year
    January,                 !- Escalation Start Month
    0.8469,                  !- Year 1 Escalation
    0.8257,                  !- Year 2 Escalation
    0.8681,                  !- Year 3 Escalation
    0.8988,                  !- Year 4 Escalation
    0.9289,                  !- Year 5 Escalation
    0.9604,                  !- Year 6 Escalation
    0.9897,                  !- Year 7 Escalation
    1.0075,                  !- Year 8 Escalation
    1.0314,                  !- Year 9 Escalation
    1.0554,                  !- <none>
    1.0861,                  !- <none>
    1.1278,                  !- <none>
    1.1497,                  !- <none>
    1.1620,                  !- <none>
    1.1743,                  !- <none>
    1.1852,                  !- <none>
    1.1948,                  !- <none>
    1.2037,                  !- <none>
    1.2071,                  !- <none>
    1.2119,                  !- <none>
    1.2139,                  !- <none>
    1.2194,                  !- <none>
    1.2276,                  !- <none>
    1.2365,                  !- <none>
    1.2420,                  !- <none>
    1.2461,                  !- <none>
    1.2509,                  !- <none>
    1.2550,                  !- <none>
    1.2591,                  !- <none>
    1.2638;                  !- <none>

  LifeCycleCost:UsePriceEscalation,
    U.S. Avg  Commercial-Natural gas,  !- LCC Price Escalation Name
    NaturalGas,              !- Resource
    2011,                    !- Escalation Start Year
    January,                 !- Escalation Start Month
    0.9823,                  !- Year 1 Escalation
    0.9557,                  !- Year 2 Escalation
    0.9279,                  !- Year 3 Escalation
    0.9257,                  !- Year 4 Escalation
    0.9346,                  !- Year 5 Escalation
    0.9412,                  !- Year 6 Escalation
    0.9512,                  !- Year 7 Escalation
    0.9645,                  !- Year 8 Escalation
    0.9856,                  !- Year 9 Escalation
    1.0067,                  !- <none>
    1.0222,                  !- <none>
    1.0410,                  !- <none>
    1.0610,                  !- <none>
    1.0787,                  !- <none>
    1.0942,                  !- <none>
    1.1098,                  !- <none>
    1.1220,                  !- <none>
    1.1308,                  !- <none>
    1.1386,                  !- <none>
    1.1486,                  !- <none>
    1.1619,                  !- <none>
    1.1763,                  !- <none>
    1.1918,                  !- <none>
    1.2118,                  !- <none>
    1.2284,                  !- <none>
    1.2439,                  !- <none>
    1.2605,                  !- <none>
    1.2772,                  !- <none>
    1.2938,                  !- <none>
    1.3115;                  !- <none>

  LifeCycleCost:UsePriceEscalation,
    U.S. Avg  Commercial-Coal,  !- LCC Price Escalation Name
    Coal,                    !- Resource
    2011,                    !- Escalation Start Year
    January,                 !- Escalation Start Month
    0.9970,                  !- Year 1 Escalation
    1.0089,                  !- Year 2 Escalation
    1.0089,                  !- Year 3 Escalation
    0.9941,                  !- Year 4 Escalation
    0.9941,                  !- Year 5 Escalation
    1.0000,                  !- Year 6 Escalation
    1.0030,                  !- Year 7 Escalation
    1.0059,                  !- Year 8 Escalation
    1.0089,                  !- Year 9 Escalation
    1.0119,                  !- <none>
    1.0148,                  !- <none>
    1.0178,                  !- <none>
    1.0208,                  !- <none>
    1.0267,                  !- <none>
    1.0297,                  !- <none>
    1.0356,                  !- <none>
    1.0415,                  !- <none>
    1.0534,                  !- <none>
    1.0564,                  !- <none>
    1.0593,                  !- <none>
    1.0653,                  !- <none>
    1.0712,                  !- <none>
    1.0742,                  !- <none>
    1.0801,                  !- <none>
    1.0831,                  !- <none>
    1.0831,                  !- <none>
    1.0861,                  !- <none>
    1.0890,                  !- <none>
    1.0920,                  !- <none>
    1.0950;                  !- <none>

  Building,
    Building 1,              !- Name
    ,                        !- North Axis {deg}
    ,                        !- Terrain
    ,                        !- Loads Convergence Tolerance Value
    ,                        !- Temperature Convergence Tolerance Value {deltaC}
    ,                        !- Solar Distribution
    ,                        !- Maximum Number of Warmup Days
    ;                        !- Minimum Number of Warmup Days

  Zone,
    Thermal Zone: Steca_Freezer_Compressor_Chamber,  !- Name
    -0,                      !- Direction of Relative North {deg}
    2.77469753706411,        !- X Origin {m}
    0.530048201779473,       !- Y Origin {m}
    1.80477854883065e-016,   !- Z Origin {m}
    ,                        !- Type
    ,                        !- Multiplier
    ,                        !- Ceiling Height {m}
    ,                        !- Volume {m3}
    ,                        !- Floor Area {m2}
    ,                        !- Zone Inside Convection Algorithm
    ;                        !- Zone Outside Convection Algorithm

  BuildingSurface:Detailed,
    Surface 15,              !- Name
    Wall,                    !- Surface Type
    Cyclopentance_wall,      !- Construction Name
    Thermal Zone: Steca_Freezer_Compressor_Chamber,  !- Zone Name
    Outdoors,                !- Outside Boundary Condition
    ,                        !- Outside Boundary Condition Object
    SunExposed,              !- Sun Exposure
    WindExposed,             !- Wind Exposure
    ,                        !- View Factor to Ground
    ,                        !- Number of Vertices
    0.27,0.445000000000001,0.27,  !- X,Y,Z ==> Vertex 1 {m}
    0.27,0.445000000000001,0,  !- X,Y,Z ==> Vertex 2 {m}
    0,0.445000000000001,0,  !- X,Y,Z ==> Vertex 3 {m}
    0,0.445000000000001,0.27;  !- X,Y,Z ==> Vertex 4 {m}

  BuildingSurface:Detailed,
    Surface 16,              !- Name
    Wall,                    !- Surface Type
    Cyclopentance_wall Reversed,  !- Construction Name
    Thermal Zone: Steca_Freezer_Compressor_Chamber,  !- Zone Name
    Surface,                 !- Outside Boundary Condition
    Surface 11,              !- Outside Boundary Condition Object
    NoSun,                   !- Sun Exposure
    NoWind,                  !- Wind Exposure
    ,                        !- View Factor to Ground
    ,                        !- Number of Vertices
    0.27,0,0.27,  !- X,Y,Z ==> Vertex 1 {m}
    0.27,0.445000000000001,0.27,  !- X,Y,Z ==> Vertex 2 {m}
    0,0.445000000000001,0.27,  !- X,Y,Z ==> Vertex 3 {m}
    0,0,0.27;  !- X,Y,Z ==> Vertex 4 {m}

  BuildingSurface:Detailed,
    Surface 17,              !- Name
    Wall,                    !- Surface Type
    Cyclopentance_wall,      !- Construction Name
    Thermal Zone: Steca_Freezer_Compressor_Chamber,  !- Zone Name
    Outdoors,                !- Outside Boundary Condition
    ,                        !- Outside Boundary Condition Object
    SunExposed,              !- Sun Exposure
    WindExposed,             !- Wind Exposure
    ,                        !- View Factor to Ground
    ,                        !- Number of Vertices
    0,0,0.27,  !- X,Y,Z ==> Vertex 1 {m}
    0,0,0,  !- X,Y,Z ==> Vertex 2 {m}
    0.27,0,0,  !- X,Y,Z ==> Vertex 3 {m}
    0.27,0,0.27;  !- X,Y,Z ==> Vertex 4 {m}

  BuildingSurface:Detailed,
    Surface 18,              !- Name
    Wall,                    !- Surface Type
    Cyclopentance_wall,      !- Construction Name
    Thermal Zone: Steca_Freezer_Compressor_Chamber,  !- Zone Name
    Outdoors,                !- Outside Boundary Condition
    ,                        !- Outside Boundary Condition Object
    SunExposed,              !- Sun Exposure
    WindExposed,             !- Wind Exposure
    ,                        !- View Factor to Ground
    ,                        !- Number of Vertices
    0.27,0,0.27,  !- X,Y,Z ==> Vertex 1 {m}
    0.27,0,0,  !- X,Y,Z ==> Vertex 2 {m}
    0.27,0.445000000000001,0,  !- X,Y,Z ==> Vertex 3 {m}
    0.27,0.445000000000001,0.27;  !- X,Y,Z ==> Vertex 4 {m}

  BuildingSurface:Detailed,
    Surface 19,              !- Name
    Wall,                    !- Surface Type
    Cyclopentance_wall Reversed,  !- Construction Name
    Thermal Zone: Steca_Freezer_Compressor_Chamber,  !- Zone Name
    Surface,                 !- Outside Boundary Condition
    Surface 14,              !- Outside Boundary Condition Object
    NoSun,                   !- Sun Exposure
    NoWind,                  !- Wind Exposure
    ,                        !- View Factor to Ground
    ,                        !- Number of Vertices
    0,0.445000000000001,0.27,  !- X,Y,Z ==> Vertex 1 {m}
    0,0.445000000000001,0,  !- X,Y,Z ==> Vertex 2 {m}
    0,0,0,  !- X,Y,Z ==> Vertex 3 {m}
    0,0,0.27;  !- X,Y,Z ==> Vertex 4 {m}

  BuildingSurface:Detailed,
    Surface 20,              !- Name
    Floor,                   !- Surface Type
    Cyclopentance_wall,      !- Construction Name
    Thermal Zone: Steca_Freezer_Compressor_Chamber,  !- Zone Name
    Outdoors,                !- Outside Boundary Condition
    ,                        !- Outside Boundary Condition Object
    SunExposed,              !- Sun Exposure
    WindExposed,             !- Wind Exposure
    ,                        !- View Factor to Ground
    ,                        !- Number of Vertices
    0.27,0.445000000000001,0,  !- X,Y,Z ==> Vertex 1 {m}
    0.27,0,0,  !- X,Y,Z ==> Vertex 2 {m}
    0,0,0,  !- X,Y,Z ==> Vertex 3 {m}
    0,0.445000000000001,0;  !- X,Y,Z ==> Vertex 4 {m}

  ZoneControl:Thermostat,
    Thermal Zone: Steca_Freezer_Compressor_Chamber Thermostat,  !- Name
    Thermal Zone: Steca_Freezer_Compressor_Chamber,  !- Zone or ZoneList Name
    Thermal Zone: Steca_Freezer_Compressor_Chamber Thermostat Schedule,  !- Control Type Schedule Name
    ThermostatSetpoint:DualSetpoint,  !- Control 1 Object Type
    Thermal Zone: Steca_Freezer_Compressor_ChamberDual Setpoint Thermostats;  !- Control 1 Name

  Schedule:Compact,
    Thermal Zone: Steca_Freezer_Compressor_Chamber Thermostat Schedule,  !- Name
    Thermal Zone: Steca_Freezer_Compressor_Chamber Thermostat Schedule Type Limits,  !- Schedule Type Limits Name
    Through: 12/31,          !- Field 1
    For: AllDays,            !- Field 2
    Until: 24:00,4;          !- Field 3

  ScheduleTypeLimits,
    Thermal Zone: Steca_Freezer_Compressor_Chamber Thermostat Schedule Type Limits,  !- Name
    0,                       !- Lower Limit Value
    4,                       !- Upper Limit Value
    DISCRETE;                !- Numeric Type

  ThermostatSetpoint:DualSetpoint,
    Thermal Zone: Steca_Freezer_Compressor_ChamberDual Setpoint Thermostats,  !- Name
    Initial_room_temperature_setpoint,  !- Heating Setpoint Temperature Schedule Name
    Initial_room_temperature_setpoint;  !- Cooling Setpoint Temperature Schedule Name

  Schedule:Constant,Initial_room_temperature_setpoint,Temperature,40;

!
! HVACTemplate:Zone:IdealLoadsAirSystem,
!   Thermal Zone: Steca_Freezer_Compressor_Chamber, !- Zone Name
!   ,                                       !- Template Thermostat Name
!   ,                                       !- System Availability Schedule Name
!   ,                                       !- Maximum Heating Supply Air Temperature {C}
!   ,                                       !- Minimum Cooling Supply Air Temperature {C}
!   ,                                       !- Maximum Heating Supply Air Humidity Ratio {kgWater/kgDryAir}
!   ,                                       !- Minimum Cooling Supply Air Humidity Ratio {kgWater/kgDryAir}
!   ,                                       !- Heating Limit
!   ,                                       !- Maximum Heating Air Flow Rate {m3/s}
!   ,                                       !- Maximum Sensible Heating Capacity {W}
!   ,                                       !- Cooling Limit
!   ,                                       !- Maximum Cooling Air Flow Rate {m3/s}
!   ,                                       !- Maximum Total Cooling Capacity {W}
!   ,                                       !- Heating Availability Schedule Name
!   ,                                       !- Cooling Availability Schedule Name
!   ,                                       !- Dehumidification Control Type
!   ,                                       !- Cooling Sensible Heat Ratio {dimensionless}
!   ,                                       !- Dehumidification Setpoint {percent}
!   ,                                       !- Humidification Control Type
!   ,                                       !- Humidification Setpoint {percent}
!   ,                                       !- Outdoor Air Method
!   ,                                       !- Outdoor Air Flow Rate per Person {m3/s}
!   ,                                       !- Outdoor Air Flow Rate per Zone Floor Area {m3/s-m2}
!   ,                                       !- Outdoor Air Flow Rate per Zone {m3/s}
!   ,                                       !- Design Specification Outdoor Air Object Name
!   ;                                       !- Demand Controlled Ventilation Type

  Zone,
    Thermal Zone: Steca_Freezer_Cooling_Chamber,  !- Name
    ,                        !- Direction of Relative North {deg}
    2.37469753706411,        !- X Origin {m}
    0.530048201779473,       !- Y Origin {m}
    1.80477854883065e-016,   !- Z Origin {m}
    ,                        !- Type
    ,                        !- Multiplier
    ,                        !- Ceiling Height {m}
    ,                        !- Volume {m3}
    ,                        !- Floor Area {m2}
    ,                        !- Zone Inside Convection Algorithm
    ;                        !- Zone Outside Convection Algorithm

  BuildingSurface:Detailed,
    Surface 10,              !- Name
    Wall,                    !- Surface Type
    Cyclopentance_wall,      !- Construction Name
    Thermal Zone: Steca_Freezer_Cooling_Chamber,  !- Zone Name
    Outdoors,                !- Outside Boundary Condition
    ,                        !- Outside Boundary Condition Object
    SunExposed,              !- Sun Exposure
    WindExposed,             !- Wind Exposure
    ,                        !- View Factor to Ground
    ,                        !- Number of Vertices
    0,0,0.67,  !- X,Y,Z ==> Vertex 1 {m}
    0,0,0,  !- X,Y,Z ==> Vertex 2 {m}
    0.4,0,0,  !- X,Y,Z ==> Vertex 3 {m}
    0.4,0,0.27,  !- X,Y,Z ==> Vertex 4 {m}
    0.67,0,0.27,  !- X,Y,Z ==> Vertex 5 {m}
    0.67,0,0.67;  !- X,Y,Z ==> Vertex 6 {m}

  BuildingSurface:Detailed,
    Surface 11,              !- Name
    Wall,                    !- Surface Type
    Cyclopentance_wall,      !- Construction Name
    Thermal Zone: Steca_Freezer_Cooling_Chamber,  !- Zone Name
    Surface,                 !- Outside Boundary Condition
    Surface 16,              !- Outside Boundary Condition Object
    NoSun,                   !- Sun Exposure
    NoWind,                  !- Wind Exposure
    ,                        !- View Factor to Ground
    ,                        !- Number of Vertices
    0.67,0.445,0.27,  !- X,Y,Z ==> Vertex 1 {m}
    0.67,0,0.27,  !- X,Y,Z ==> Vertex 2 {m}
    0.4,0,0.27,  !- X,Y,Z ==> Vertex 3 {m}
    0.4,0.445,0.27;  !- X,Y,Z ==> Vertex 4 {m}

  BuildingSurface:Detailed,
    Surface 12,              !- Name
    Floor,                   !- Surface Type
    Cyclopentance_wall,      !- Construction Name
    Thermal Zone: Steca_Freezer_Cooling_Chamber,  !- Zone Name
    Outdoors,                !- Outside Boundary Condition
    ,                        !- Outside Boundary Condition Object
    SunExposed,              !- Sun Exposure
    WindExposed,             !- Wind Exposure
    ,                        !- View Factor to Ground
    ,                        !- Number of Vertices
    0.4,0.445,0,  !- X,Y,Z ==> Vertex 1 {m}
    0.4,0,0,  !- X,Y,Z ==> Vertex 2 {m}
    0,0,0,  !- X,Y,Z ==> Vertex 3 {m}
    0,0.445,0;  !- X,Y,Z ==> Vertex 4 {m}

  BuildingSurface:Detailed,
    Surface 13,              !- Name
    Wall,                    !- Surface Type
    Cyclopentance_wall,      !- Construction Name
    Thermal Zone: Steca_Freezer_Cooling_Chamber,  !- Zone Name
    Outdoors,                !- Outside Boundary Condition
    ,                        !- Outside Boundary Condition Object
    SunExposed,              !- Sun Exposure
    WindExposed,             !- Wind Exposure
    ,                        !- View Factor to Ground
    ,                        !- Number of Vertices
    0.67,0,0.67,  !- X,Y,Z ==> Vertex 1 {m}
    0.67,0,0.27,  !- X,Y,Z ==> Vertex 2 {m}
    0.67,0.445,0.27,  !- X,Y,Z ==> Vertex 3 {m}
    0.67,0.445,0.67;  !- X,Y,Z ==> Vertex 4 {m}

  BuildingSurface:Detailed,
    Surface 14,              !- Name
    Wall,                    !- Surface Type
    Cyclopentance_wall,      !- Construction Name
    Thermal Zone: Steca_Freezer_Cooling_Chamber,  !- Zone Name
    Surface,                 !- Outside Boundary Condition
    Surface 19,              !- Outside Boundary Condition Object
    NoSun,                   !- Sun Exposure
    NoWind,                  !- Wind Exposure
    ,                        !- View Factor to Ground
    ,                        !- Number of Vertices
    0.4,0,0.27,  !- X,Y,Z ==> Vertex 1 {m}
    0.4,0,0,  !- X,Y,Z ==> Vertex 2 {m}
    0.4,0.445,0,  !- X,Y,Z ==> Vertex 3 {m}
    0.4,0.445,0.27;  !- X,Y,Z ==> Vertex 4 {m}

  BuildingSurface:Detailed,
    Surface 7,               !- Name
    Roof,                    !- Surface Type
    Cyclopentance_wall,      !- Construction Name
    Thermal Zone: Steca_Freezer_Cooling_Chamber,  !- Zone Name
    Outdoors,                !- Outside Boundary Condition
    ,                        !- Outside Boundary Condition Object
    SunExposed,              !- Sun Exposure
    WindExposed,             !- Wind Exposure
    ,                        !- View Factor to Ground
    ,                        !- Number of Vertices
    0.67,0,0.67,  !- X,Y,Z ==> Vertex 1 {m}
    0.67,0.445,0.67,  !- X,Y,Z ==> Vertex 2 {m}
    0,0.445,0.67,  !- X,Y,Z ==> Vertex 3 {m}
    0,0,0.67;  !- X,Y,Z ==> Vertex 4 {m}

  BuildingSurface:Detailed,
    Surface 8,               !- Name
    Wall,                    !- Surface Type
    Cyclopentance_wall,      !- Construction Name
    Thermal Zone: Steca_Freezer_Cooling_Chamber,  !- Zone Name
    Outdoors,                !- Outside Boundary Condition
    ,                        !- Outside Boundary Condition Object
    SunExposed,              !- Sun Exposure
    WindExposed,             !- Wind Exposure
    ,                        !- View Factor to Ground
    ,                        !- Number of Vertices
    0,0.445,0.67,  !- X,Y,Z ==> Vertex 1 {m}
    0,0.445,0,  !- X,Y,Z ==> Vertex 2 {m}
    0,0,0,  !- X,Y,Z ==> Vertex 3 {m}
    0,0,0.67;  !- X,Y,Z ==> Vertex 4 {m}

  BuildingSurface:Detailed,
    Surface 9,               !- Name
    Wall,                    !- Surface Type
    Cyclopentance_wall,      !- Construction Name
    Thermal Zone: Steca_Freezer_Cooling_Chamber,  !- Zone Name
    Outdoors,                !- Outside Boundary Condition
    ,                        !- Outside Boundary Condition Object
    SunExposed,              !- Sun Exposure
    WindExposed,             !- Wind Exposure
    ,                        !- View Factor to Ground
    ,                        !- Number of Vertices
    0.67,0.445,0.67,  !- X,Y,Z ==> Vertex 1 {m}
    0.67,0.445,0.27,  !- X,Y,Z ==> Vertex 2 {m}
    0.4,0.445,0.27,  !- X,Y,Z ==> Vertex 3 {m}
    0.4,0.445,0,  !- X,Y,Z ==> Vertex 4 {m}
    0,0.445,0,  !- X,Y,Z ==> Vertex 5 {m}
    0,0.445,0.67;  !- X,Y,Z ==> Vertex 6 {m}

  ElectricEquipment,
    Steca_Freezer_Cooling_Chamber_TestInternalGain,  !- Name
    Thermal Zone: Steca_Freezer_Cooling_Chamber,  !- Zone or ZoneList Name
    Schedule Electric,       !- Schedule Name
    EquipmentLevel,          !- Design Level Calculation Method
    1000,                    !- Design Level {W}
    ,                        !- Watts per Zone Floor Area {W/m2}
    ,                        !- Watts per Person {W/person}
    ,                        !- Fraction Latent
    ,                        !- Fraction Radiant
    1,                       !- Fraction Lost
    General;                 !- End-Use Subcategory

  OtherEquipment,
    Other Equipment 1,       !- Name
    None,                    !- Fuel Type
    Thermal Zone: Steca_Freezer_Cooling_Chamber,  !- Zone or ZoneList Name
    External Interface Functional Mockup Unit Export To Schedule 1,  !- Schedule Name
    EquipmentLevel,          !- Design Level Calculation Method
    1,                       !- Design Level {W}
    ,                        !- Power per Zone Floor Area {W/m2}
    ,                        !- Power per Person {W/person}
    ,                        !- Fraction Latent
    ,                        !- Fraction Radiant
    ,                        !- Fraction Lost
    ,                        !- Carbon Dioxide Generation Rate {m3/s-W}
    General;                 !- End-Use Subcategory

  ZoneControl:Thermostat,
    Thermal Zone: Steca_Freezer_Cooling_Chamber Thermostat,  !- Name
    Thermal Zone: Steca_Freezer_Cooling_Chamber,  !- Zone or ZoneList Name
    Thermal Zone: Steca_Freezer_Cooling_Chamber Thermostat Schedule,  !- Control Type Schedule Name
    ThermostatSetpoint:DualSetpoint,  !- Control 1 Object Type
    Thermostat Setpoint Dual Setpoint 1;  !- Control 1 Name

  Schedule:Compact,
    Thermal Zone: Steca_Freezer_Cooling_Chamber Thermostat Schedule,  !- Name
    Thermal Zone: Steca_Freezer_Cooling_Chamber Thermostat Schedule Type Limits,  !- Schedule Type Limits Name
    Through: 12/31,          !- Field 1
    For: AllDays,            !- Field 2
    Until: 24:00,4;          !- Field 3

  ScheduleTypeLimits,
    Thermal Zone: Steca_Freezer_Cooling_Chamber Thermostat Schedule Type Limits,  !- Name
    0,                       !- Lower Limit Value
    4,                       !- Upper Limit Value
    DISCRETE;                !- Numeric Type

  ThermostatSetpoint:DualSetpoint,
    Thermostat Setpoint Dual Setpoint 1,  !- Name
    Initial_room_temperature_setpoint,  !- Heating Setpoint Temperature Schedule Name
    Initial_room_temperature_setpoint;  !- Cooling Setpoint Temperature Schedule Name

!
! HVACTemplate:Zone:IdealLoadsAirSystem,
!   Thermal Zone: Steca_Freezer_Cooling_Chamber, !- Zone Name
!   ,                                       !- Template Thermostat Name
!   ,                                       !- System Availability Schedule Name
!   ,                                       !- Maximum Heating Supply Air Temperature {C}
!   ,                                       !- Minimum Cooling Supply Air Temperature {C}
!   ,                                       !- Maximum Heating Supply Air Humidity Ratio {kgWater/kgDryAir}
!   ,                                       !- Minimum Cooling Supply Air Humidity Ratio {kgWater/kgDryAir}
!   ,                                       !- Heating Limit
!   ,                                       !- Maximum Heating Air Flow Rate {m3/s}
!   ,                                       !- Maximum Sensible Heating Capacity {W}
!   ,                                       !- Cooling Limit
!   ,                                       !- Maximum Cooling Air Flow Rate {m3/s}
!   ,                                       !- Maximum Total Cooling Capacity {W}
!   ,                                       !- Heating Availability Schedule Name
!   ,                                       !- Cooling Availability Schedule Name
!   ,                                       !- Dehumidification Control Type
!   ,                                       !- Cooling Sensible Heat Ratio {dimensionless}
!   ,                                       !- Dehumidification Setpoint {percent}
!   ,                                       !- Humidification Control Type
!   ,                                       !- Humidification Setpoint {percent}
!   ,                                       !- Outdoor Air Method
!   ,                                       !- Outdoor Air Flow Rate per Person {m3/s}
!   ,                                       !- Outdoor Air Flow Rate per Zone Floor Area {m3/s-m2}
!   ,                                       !- Outdoor Air Flow Rate per Zone {m3/s}
!   ,                                       !- Design Specification Outdoor Air Object Name
!   ;                                       !- Demand Controlled Ventilation Type

  SimulationControl,
    No,                      !- Do Zone Sizing Calculation
    No,                      !- Do System Sizing Calculation
    No,                      !- Do Plant Sizing Calculation
    Yes,                     !- Run Simulation for Sizing Periods
    Yes;                     !- Run Simulation for Weather File Run Periods

  ConvergenceLimits,
    1;                       !- Minimum System Timestep {minutes}

  HeatBalanceAlgorithm,ConductionTransferFunction,200;

  RunPeriod,
    Run Period 1,            !- Name
    1,                       !- Begin Month
    1,                       !- Begin Day of Month
    2017,                    !- Begin Year
    1,                       !- End Month
    2,                       !- End Day of Month
    2017,                    !- End Year
    Sunday,                  !- Day of Week for Start Day
    No,                      !- Use Weather File Holidays and Special Days
    No,                      !- Use Weather File Daylight Saving Period
    No,                      !- Apply Weekend Holiday Rule