
OS:Version,
  {0a2539bb-2652-4df4-8ce2-56b5929cefda}, !- Handle
  3.1.0;                                  !- Version Identifier

OS:Site,
  {90cb43a9-5ea3-4258-9663-d59dd6d71465}, !- Handle
  Berkeley (LBNL FLEXLAB),                !- Name
  37.879,                                 !- Latitude {deg}
  -122.253,                               !- Longitude {deg}
  -8,                                     !- Time Zone {hr}
  207.264,                                !- Elevation {m}
  Suburbs;                                !- Terrain

OS:SimulationControl,
  {4be82de4-ad26-43e7-b18b-a3a22012ee1d}, !- Handle
  No,                                     !- Do Zone Sizing Calculation
  No,                                     !- Do System Sizing Calculation
  No,                                     !- Do Plant Sizing Calculation
  No,                                     !- Run Simulation for Sizing Periods
  Yes,                                    !- Run Simulation for Weather File Run Periods
  0.04,                                   !- Loads Convergence Tolerance Value {W}
  0.4,                                    !- Temperature Convergence Tolerance Value {deltaC}
  FullInteriorAndExteriorWithReflections, !- Solar Distribution
  30,                                     !- Maximum Number of Warmup Days
  6,                                      !- Minimum Number of Warmup Days
  No,                                     !- Do HVAC Sizing Simulation for Sizing Periods
  1;                                      !- Maximum Number of HVAC Sizing Simulation Passes

OS:Building,
  {74f18cc1-d97b-42cf-a152-3c7f578802c0}, !- Handle
  Office,                                 !- Name
  ,                                       !- Building Sector Type
  0,                                      !- North Axis {deg}
  ,                                       !- Nominal Floor to Floor Height {m}
  ,                                       !- Space Type Name
  ,                                       !- Default Construction Set Name
  {76d62326-ec66-411c-b9f7-ebb73fd2448f}; !- Default Schedule Set Name

OS:ShadowCalculation,
  {7d4b89c7-d199-43b8-b8d4-5f61f1478b3d}, !- Handle
  PolygonClipping,                        !- Shading Calculation Method
  Periodic,                               !- Shading Calculation Update Frequency Method
  20,                                     !- Shading Calculation Update Frequency
  50000,                                  !- Maximum Figures in Shadow Overlap Calculations
  ,                                       !- Polygon Clipping Algorithm
  512,                                    !- Pixel Counting Resolution
  ,                                       !- Sky Diffuse Modeling Algorithm
  No,                                     !- Output External Shading Calculation Results
  No,                                     !- Disable Self-Shading Within Shading Zone Groups
  No;                                     !- Disable Self-Shading From Shading Zone Groups to Other Zones

OS:Surface,
  {91e7514f-46a1-4fcc-bf9c-10d7e8df42d1}, !- Handle
  S1Wall-FlexLab-X3-ElecRoom-ZoneA,       !- Name
  WALL,                                   !- Surface Type
  {a50d775c-4d16-4d28-9dff-22a416099310}, !- Construction Name
  {09aa89dc-fba3-49bb-b65d-3f0c110dd59e}, !- Space Name
  Surface,                                !- Outside Boundary Condition
  {2d0d9f5d-8a0c-49a4-9ff4-755a6300e60c}, !- Outside Boundary Condition Object
  NoSun,                                  !- Sun Exposure
  NoWind,                                 !- Wind Exposure
  ,                                       !- View Factor to Ground
  ,                                       !- Number of Vertices
  3.2389, 9.322, 2.743,                   !- X,Y,Z Vertex 1 {m}
  3.2389, 9.322, 0,                       !- X,Y,Z Vertex 2 {m}
  4.4053, 9.322, 0,                       !- X,Y,Z Vertex 3 {m}
  4.4053, 9.322, 2.743;                   !- X,Y,Z Vertex 4 {m}

OS:Construction,
  {a50d775c-4d16-4d28-9dff-22a416099310}, !- Handle
  ZoneA-S1WALL-ElecRoom-Const,            !- Name
  ,                                       !- Surface Rendering Name
  {6b5a3fe2-890b-48b5-a9dd-995c5619f12a}, !- Layer 1
  {e2f9b7e1-d3d6-487e-859d-7099444f8585}, !- Layer 2
  {f7a7fb1e-9603-421b-824c-7696ef019f39}, !- Layer 3
  {e2f9b7e1-d3d6-487e-859d-7099444f8585}, !- Layer 4
  {465f5fb7-e68d-44ab-a115-bf58bed199f3}, !- Layer 5
  {1e661915-86a0-4914-b67e-43d3040637a6}; !- Layer 6

OS:Material,
  {6b5a3fe2-890b-48b5-a9dd-995c5619f12a}, !- Handle
  Gypsum Board 5/8",                      !- Name
  MediumSmooth,                           !- Roughness
  0.0159,                                 !- Thickness {m}
  0.16,                                   !- Conductivity {W/m-K}
  801,                                    !- Density {kg/m3}
  837,                                    !- Specific Heat {J/kg-K}
  0.9,                                    !- Thermal Absorptance
  0.69,                                   !- Solar Absorptance
  0.63;                                   !- Visible Absorptance

OS:Material,
  {e2f9b7e1-d3d6-487e-859d-7099444f8585}, !- Handle
  Plywood 1/2",                           !- Name
  MediumSmooth,                           !- Roughness
  0.0127,                                 !- Thickness {m}
  0.115,                                  !- Conductivity {W/m-K}
  545,                                    !- Density {kg/m3}
  1213,                                   !- Specific Heat {J/kg-K}
  0.9,                                    !- Thermal Absorptance
  0.5,                                    !- Solar Absorptance
  0.5;                                    !- Visible Absorptance

OS:Material,
  {f7a7fb1e-9603-421b-824c-7696ef019f39}, !- Handle
  Equiv Layer K1-NorthWall,               !- Name
  MediumSmooth,                           !- Roughness
  0.1842,                                 !- Thickness {m}
  0.205,                                  !- Conductivity {W/m-K}
  270,                                    !- Density {kg/m3}
  1300,                                   !- Specific Heat {J/kg-K}
  0.9,                                    !- Thermal Absorptance
  0.5,                                    !- Solar Absorptance
  0.5;                                    !- Visible Absorptance

OS:Material,
  {465f5fb7-e68d-44ab-a115-bf58bed199f3}, !- Handle
  Equiv Layer K2-NorthWall,               !- Name
  MediumSmooth,                           !- Roughness
  0.0762,                                 !- Thickness {m}
  0.0418,                                 !- Conductivity {W/m-K}
  72.9,                                   !- Density {kg/m3}
  1249,                                   !- Specific Heat {J/kg-K}
  0.9,                                    !- Thermal Absorptance
  0.5,                                    !- Solar Absorptance
  0.5;                                    !- Visible Absorptance

OS:Material,
  {1e661915-86a0-4914-b67e-43d3040637a6}, !- Handle
  Plywood 3/4",                           !- Name
  MediumSmooth,                           !- Roughness
  0.0191,                                 !- Thickness {m}
  0.115,                                  !- Conductivity {W/m-K}
  545,                                    !- Density {kg/m3}
  1213,                                   !- Specific Heat {J/kg-K}
  0.9,                                    !- Thermal Absorptance
  0.5,                                    !- Solar Absorptance
  0.5;                                    !- Visible Absorptance

OS:ThermalZone,
  {cfa9609c-4ae3-4a96-974e-7a46b0f27db9}, !- Handle
  FlexLab-X3-ElecRoom-ZoneA Thermal Zone, !- Name
  1,                                      !- Multiplier
  ,                                       !- Ceiling Height {m}
  ,                                       !- Volume {m3}
  ,                                       !- Floor Area {m2}
  ,                                       !- Zone Inside Convection Algorithm
  ,                                       !- Zone Outside Convection Algorithm
  ,                                       !- Zone Conditioning Equipment List Name
  {e3a7ac3c-759b-46a0-ad25-18ee7e3d62a3}, !- Zone Air Inlet Port List
  {e73ac7de-2053-47a4-8d59-01c2b8d5cf02}, !- Zone Air Exhaust Port List
  {468a682c-64e6-4933-9201-d8aca0ede7c5}, !- Zone Air Node Name
  {bcbb7176-c371-42e5-a2cf-3e626d8dd5cd}, !- Zone Return Air Port List
  ,                                       !- Primary Daylighting Control Name
  ,                                       !- Fraction of Zone Controlled by Primary Daylighting Control
  ,                                       !- Secondary Daylighting Control Name
  ,                                       !- Fraction of Zone Controlled by Secondary Daylighting Control
  ,                                       !- Illuminance Map Name
  {40d9537d-1dfd-4444-b2a7-7b92051ec288}, !- Group Rendering Name
  ,                                       !- Thermostat Name
  No;                                     !- Use Ideal Air Loads

OS:Node,
  {686ae234-f5a3-414f-94e6-0721c13a88b8}, !- Handle
  Node 1,                                 !- Name
  {468a682c-64e6-4933-9201-d8aca0ede7c5}, !- Inlet Port
  ;                                       !- Outlet Port

OS:Connection,
  {468a682c-64e6-4933-9201-d8aca0ede7c5}, !- Handle
  {7c0e9850-37a5-44e0-968a-295ddc552e88}, !- Name
  {cfa9609c-4ae3-4a96-974e-7a46b0f27db9}, !- Source Object
  11,                                     !- Outlet Port
  {686ae234-f5a3-414f-94e6-0721c13a88b8}, !- Target Object
  2;                                      !- Inlet Port

OS:PortList,
  {e3a7ac3c-759b-46a0-ad25-18ee7e3d62a3}, !- Handle
  {0b578dde-a175-4387-9557-31bb22cd78c9}, !- Name
  {cfa9609c-4ae3-4a96-974e-7a46b0f27db9}; !- HVAC Component

OS:PortList,
  {e73ac7de-2053-47a4-8d59-01c2b8d5cf02}, !- Handle
  {b9eee320-f9fa-4bf5-be5e-5ce19baa2078}, !- Name
  {cfa9609c-4ae3-4a96-974e-7a46b0f27db9}; !- HVAC Component

OS:PortList,
  {bcbb7176-c371-42e5-a2cf-3e626d8dd5cd}, !- Handle
  {a9c9f6fe-0694-4ed1-80d5-d265935557d5}, !- Name
  {cfa9609c-4ae3-4a96-974e-7a46b0f27db9}; !- HVAC Component

OS:Sizing:Zone,
  {1b5cc5e1-a046-4b8b-9258-96ac41618436}, !- Handle
  {cfa9609c-4ae3-4a96-974e-7a46b0f27db9}, !- Zone or ZoneList Name
  SupplyAirTemperature,                   !- Zone Cooling Design Supply Air Temperature Input Method
  14,                                     !- Zone Cooling Design Supply Air Temperature {C}
  11.11,                                  !- Zone Cooling Design Supply Air Temperature Difference {deltaC}
  SupplyAirTemperature,                   !- Zone Heating Design Supply Air Temperature Input Method
  40,                                     !- Zone Heating Design Supply Air Temperature {C}
  11.11,                                  !- Zone Heating Design Supply Air Temperature Difference {deltaC}
  0.0085,                                 !- Zone Cooling Design Supply Air Humidity Ratio {kg-H2O/kg-air}
  0.008,                                  !- Zone Heating Design Supply Air Humidity Ratio {kg-H2O/kg-air}
  ,                                       !- Zone Heating Sizing Factor
  ,                                       !- Zone Cooling Sizing Factor
  DesignDay,                              !- Cooling Design Air Flow Method
  ,                                       !- Cooling Design Air Flow Rate {m3/s}
  ,                                       !- Cooling Minimum Air Flow per Zone Floor Area {m3/s-m2}
  ,                                       !- Cooling Minimum Air Flow {m3/s}
  ,                                       !- Cooling Minimum Air Flow Fraction
  DesignDay,                              !- Heating Design Air Flow Method
  ,                                       !- Heating Design Air Flow Rate {m3/s}
  ,                                       !- Heating Maximum Air Flow per Zone Floor Area {m3/s-m2}
  ,                                       !- Heating Maximum Air Flow {m3/s}
  ,                                       !- Heating Maximum Air Flow Fraction
  No,                                     !- Account for Dedicated Outdoor Air System
  NeutralSupplyAir,                       !- Dedicated Outdoor Air System Control Strategy
  autosize,                               !- Dedicated Outdoor Air Low Setpoint Temperature for Design {C}
  autosize;                               !- Dedicated Outdoor Air High Setpoint Temperature for Design {C}

OS:ZoneHVAC:EquipmentList,
  {6f9604c9-cf37-4715-955b-18fb7268b2aa}, !- Handle
  Zone HVAC Equipment List 1,             !- Name
  {cfa9609c-4ae3-4a96-974e-7a46b0f27db9}; !- Thermal Zone

OS:Space,
  {09aa89dc-fba3-49bb-b65d-3f0c110dd59e}, !- Handle
  FlexLab-X3-ElecRoom-ZoneA,              !- Name
  ,                                       !- Space Type Name
  ,                                       !- Default Construction Set Name
  ,                                       !- Default Schedule Set Name
  0,                                      !- Direction of Relative North {deg}
  0,                                      !- X Origin {m}
  0,                                      !- Y Origin {m}
  0,                                      !- Z Origin {m}
  ,                                       !- Building Story Name
  {cfa9609c-4ae3-4a96-974e-7a46b0f27db9}; !- Thermal Zone Name

OS:HeatBalanceAlgorithm,
  {bdf0f990-b9fe-47f6-bda2-39cf25a269ff}, !- Handle
  ConductionTransferFunction,             !- Algorithm
  200;                                    !- Surface Temperature Upper Limit {C}

OS:Timestep,
  {7eb871c5-a192-4838-8a8a-cd9c3cdfbc1c}, !- Handle
  4;                                      !- Number of Timesteps per Hour

OS:SizingPeriod:DesignDay,
  {0d6355d4-c1c1-4a6f-a96c-ab89ec6c39b6}, !- Handle
  Oakland Metropolitan Arpt Ann Clg .4% Condns DB=>MWB, !- Name
  27.7,                                   !- Maximum Dry-Bulb Temperature {C}
  7.4,                                    !- Daily Dry-Bulb Temperature Range {deltaC}
  18.3,                                   !- Humidity Indicating Conditions at Maximum Dry-Bulb
  101301,                                 !- Barometric Pressure {Pa}
  4.9,                                    !- Wind Speed {m/s}
  290,                                    !- Wind Direction {deg}
  0,                                      !- Sky Clearness
  0,                                      !- Rain Indicator
  0,                                      !- Snow Indicator
  21,                                     !- Day of Month
  8,                                      !- Month
  SummerDesignDay,                        !- Day Type
  0,                                      !- Daylight Saving Time Indicator
  Wetbulb,                                !- Humidity Indicating Type
  ,                                       !- Humidity Indicating Day Schedule Name
  DefaultMultipliers,                     !- Dry-Bulb Temperature Range Modifier Type
  ,                                       !- Dry-Bulb Temperature Range Modifier Schedule Name
  ASHRAETau,                              !- Solar Model Indicator
  ,                                       !- Beam Solar Day Schedule Name
  ,                                       !- Diffuse Solar Day Schedule Name
  0.367,                                  !- ASHRAE Taub {dimensionless}
  2.428;                                  !- ASHRAE Taud {dimensionless}

OS:SizingPeriod:DesignDay,
  {ac79aaf4-81e7-4957-80cf-4c298f67580f}, !- Handle
  Oakland Metropolitan Arpt Ann Htg 99.6% Condns DB, !- Name
  2.9,                                    !- Maximum Dry-Bulb Temperature {C}
  0,                                      !- Daily Dry-Bulb Temperature Range {deltaC}
  2.9,                                    !- Humidity Indicating Conditions at Maximum Dry-Bulb
  101301,                                 !- Barometric Pressure {Pa}
  2.2,                                    !- Wind Speed {m/s}
  50,                                     !- Wind Direction {deg}
  0,                                      !- Sky Clearness
  0,                                      !- Rain Indicator
  0,                                      !- Snow Indicator
  21,                                     !- Day of Month
  1,                                      !- Month
  WinterDesignDay,                        !- Day Type
  0,                                      !- Daylight Saving Time Indicator
  Wetbulb,                                !- Humidity Indicating Type
  ,                                       !- Humidity Indicating Day Schedule Name
  DefaultMultipliers,                     !- Dry-Bulb Temperature Range Modifier Type
  ,                                       !- Dry-Bulb Temperature Range Modifier Schedule Name
  ASHRAEClearSky;                         !- Solar Model Indicator

OS:RunPeriod,
  {98bc019d-c345-48b9-a462-90b0a4bfb83b}, !- Handle
  datarun,                                !- Name
  10,                                     !- Begin Month
  28,                                     !- Begin Day of Month
  11,                                     !- End Month
  30,                                     !- End Day of Month
  No,                                     !- Use Weather File Holidays and Special Days
  No,                                     !- Use Weather File Daylight Saving Period
  No,                                     !- Apply Weekend Holiday Rule
  Yes,                                    !- Use Weather File Rain Indicators
  Yes,                                    !- Use Weather File Snow Indicators
  ;                                       !- Number of Times Runperiod to be Repeated

OS:YearDescription,
  {96f71c9d-50ad-488b-9fbf-30a4538af9e5}, !- Handle
  2020,                                   !- Calendar Year
  ,                                       !- Day of Week for Start Day
  ;                                       !- Is Leap Year

OS:ScheduleTypeLimits,
  {10728f8c-d438-401d-98eb-a363aba977bd}, !- Handle
  AnyNumber,                              !- Name
  ,                                       !- Lower Limit Value
  ,                                       !- Upper Limit Value
  CONTINUOUS;                             !- Numeric Type

OS:ScheduleTypeLimits,
  {3987556a-d391-4f8e-b6ee-2bceb8dd3127}, !- Handle
  Control TypeHV,                         !- Name
  0,                                      !- Lower Limit Value
  4,                                      !- Upper Limit Value
  DISCRETE,                               !- Numeric Type
  ControlMode;                            !- Unit Type

OS:ScheduleTypeLimits,
  {69219b31-2864-44e9-b679-95a98781e936}, !- Handle
  Fraction,                               !- Name
  0,                                      !- Lower Limit Value
  1,                                      !- Upper Limit Value
  CONTINUOUS;                             !- Numeric Type

OS:ScheduleTypeLimits,
  {aaeae21d-f3b7-4c0e-97b0-526427ab2d1d}, !- Handle
  On/Off,                                 !- Name
  0,                                      !- Lower Limit Value
  1,                                      !- Upper Limit Value
  DISCRETE,                               !- Numeric Type
  Availability;                           !- Unit Type

OS:ScheduleTypeLimits,
  {ece74966-a04e-4db0-ab26-60975632849c}, !- Handle
  On/OffHV,                               !- Name
  0,                                      !- Lower Limit Value
  1,                                      !- Upper Limit Value
  DISCRETE,                               !- Numeric Type
  Availability;                           !- Unit Type

OS:ScheduleTypeLimits,
  {d4589fb6-07b9-4fc9-917b-aca1302ac10d}, !- Handle
  Temperature,                            !- Name
  -60,                                    !- Lower Limit Value
  200,                                    !- Upper Limit Value
  CONTINUOUS,                             !- Numeric Type
  Temperature;                            !- Unit Type

OS:ScheduleTypeLimits,
  {fe2a5ee9-e7c2-4327-b149-57b18e7fa215}, !- Handle
  TemperatureHV,                          !- Name
  -60,                                    !- Lower Limit Value
  200,                                    !- Upper Limit Value
  CONTINUOUS,                             !- Numeric Type
  Temperature;                            !- Unit Type

OS:Schedule:Compact,
  {ed39cad9-f445-4bfe-885a-13fc5dfc4524}, !- Handle
  A_Window_State_Schedule,                !- Name
  {aaeae21d-f3b7-4c0e-97b0-526427ab2d1d}, !- Schedule Type Limits Name
  Through: 12/31,                         !- Field 1
  For: AllDays,                           !- Field 2
  Until: 24:00,                           !- Field 3
  0;                                      !- Field 4

OS:Schedule:Compact,
  {3e169ee8-0655-4bcd-ae3b-b51110b7c6af}, !- Handle
  ACTIVITY-SCHED,                         !- Name
  {10728f8c-d438-401d-98eb-a363aba977bd}, !- Schedule Type Limits Name
  Through: 12/31,                         !- Field 1
  For: AllDays,                           !- Field 2
  Until: 24:00,                           !- Field 3
  120;                                    !- Field 4

OS:Schedule:Compact,
  {b0b85e0a-1feb-4b16-afc1-36b61463cba5}, !- Handle
  AIR_VELO-SCHED,                         !- Name
  {10728f8c-d438-401d-98eb-a363aba977bd}, !- Schedule Type Limits Name
  Through: 12/31,                         !- Field 1
  For: AllDays,                           !- Field 2
  Until: 24:00,                           !- Field 3
  0.2;                                    !- Field 4

OS:Schedule:Compact,
  {3ec5c690-2af2-41ac-a99a-0c18b9d47ec2}, !- Handle
  ALWAYSOFF,                              !- Name
  {aaeae21d-f3b7-4c0e-97b0-526427ab2d1d}, !- Schedule Type Limits Name
  Through: 12/31,                         !- Field 1
  For: AllDays,                           !- Field 2
  Until: 24:00,                           !- Field 3
  0;                                      !- Field 4

OS:Schedule:Compact,
  {a9fb0679-f111-4236-8b89-7631eb8a79f5}, !- Handle
  ALWAYSON,                               !- Name
  {aaeae21d-f3b7-4c0e-97b0-526427ab2d1d}, !- Schedule Type Limits Name
  Through: 12/31,                         !- Field 1
  For: AllDays,                           !- Field 2
  Until: 24:00,                           !- Field 3
  1.;                                     !- Field 4

OS:Schedule:Compact,
  {14125229-3d5c-4873-bf18-5635723c3d2c}, !- Handle
  B_Window_State_Schedule,                !- Name
  {aaeae21d-f3b7-4c0e-97b0-526427ab2d1d}, !- Schedule Type Limits Name
  Through: 01/31,                         !- Field 1
  For: AllDays,                           !- Field 2
  Until: 24:00,                           !- Field 3
  0,                                      !- Field 4
  Through: 03/24,                         !- Field 5
  For: AllDays,                           !- Field 6
  Until: 24:00,                           !- Field 7
  1,                                      !- Field 8
  Through: 5/5,                           !- Field 9
  For: AllDays,                           !- Field 10
  Until: 24:00,                           !- Field 11
  0,                                      !- Field 12
  Through: 5/12,                          !- Field 13
  For: AllDays,                           !- Field 14
  Until: 24:00,                           !- Field 15
  1,                                      !- Field 16
  Through: 06/12,                         !- Field 17
  For: AllDays,                           !- Field 18
  Until: 24:00,                           !- Field 19
  0,                                      !- Field 20
  Through: 07/10,                         !- Field 21
  For: AllDays,                           !- Field 22
  Until: 24:00,                           !- Field 23
  1,                                      !- Field 24
  Through: 12/31,                         !- Field 25
  For: AllDays,                           !- Field 26
  Until: 24:00,                           !- Field 27
  0;                                      !- Field 28

OS:Schedule:Compact,
  {05b41fba-0bfa-4380-a38c-9b7e9663c162}, !- Handle
  CLG-SCHED,                              !- Name
  {d4589fb6-07b9-4fc9-917b-aca1302ac10d}, !- Schedule Type Limits Name
  Through: 12/31,                         !- Field 1
  For: Weekdays SummerDesignDay,          !- Field 2
  Until: 06:00,                           !- Field 3
  26.7,                                   !- Field 4
  Until: 22:00,                           !- Field 5
  24.0,                                   !- Field 6
  Until: 24:00,                           !- Field 7
  26.7,                                   !- Field 8
  For: Saturday,                          !- Field 9
  Until: 06:00,                           !- Field 10
  26.7,                                   !- Field 11
  Until: 18:00,                           !- Field 12
  24.0,                                   !- Field 13
  Until: 24:00,                           !- Field 14
  26.7,                                   !- Field 15
  For: AllOtherDays,                      !- Field 16
  Until: 24:00,                           !- Field 17
  26.7;                                   !- Field 18

OS:Schedule:Compact,
  {ce5b0d21-686f-4175-b385-6b13c8349952}, !- Handle
  CLOTHING-SCHED,                         !- Name
  {10728f8c-d438-401d-98eb-a363aba977bd}, !- Schedule Type Limits Name
  Through: 04/30,                         !- Field 1
  For: AllDays,                           !- Field 2
  Until: 24:00,                           !- Field 3
  1.0,                                    !- Field 4
  Through: 09/30,                         !- Field 5
  For: AllDays,                           !- Field 6
  Until: 24:00,                           !- Field 7
  0.5,                                    !- Field 8
  Through: 12/31,                         !- Field 9
  For: AllDays,                           !- Field 10
  Until: 24:00,                           !- Field 11
  1.0;                                    !- Field 12

OS:Schedule:Compact,
  {d080dfc7-18c6-442a-90e3-fd8cdaa5c993}, !- Handle
  COOLINGCOILAVAILSCHED,                  !- Name
  {69219b31-2864-44e9-b679-95a98781e936}, !- Schedule Type Limits Name
  Through: 3/31,                          !- Field 1
  For: Alldays,                           !- Field 2
  Until: 24:00,                           !- Field 3
  0.00,                                   !- Field 4
  Through: 9/30,                          !- Field 5
  For: Weekdays SummerDesignDay WinterDesignDay, !- Field 6
  Until: 7:00,                            !- Field 7
  0.00,                                   !- Field 8
  Until: 17:00,                           !- Field 9
  1.00,                                   !- Field 10
  Until: 24:00,                           !- Field 11
  0.00,                                   !- Field 12
  For: Weekends Holidays CustomDay1 CustomDay2, !- Field 13
  Until: 24:00,                           !- Field 14
  0.00,                                   !- Field 15
  Through: 12/31,                         !- Field 16
  For: Alldays,                           !- Field 17
  Until: 24:00,                           !- Field 18
  0.00;                                   !- Field 19

OS:Schedule:Compact,
  {b37e26d2-48f0-4179-945c-30ee31cc1b4e}, !- Handle
  CW Loop Temp Schedule,                  !- Name
  {d4589fb6-07b9-4fc9-917b-aca1302ac10d}, !- Schedule Type Limits Name
  Through: 12/31,                         !- Field 1
  For: AllDays,                           !- Field 2
  Until: 24:00,                           !- Field 3
  6.67;                                   !- Field 4

OS:Schedule:Compact,
  {c1d25695-375f-4198-8445-6e925e850bae}, !- Handle
  DefaultFAN-SCHED,                       !- Name
  {aaeae21d-f3b7-4c0e-97b0-526427ab2d1d}, !- Schedule Type Limits Name
  Through: 12/31,                         !- Field 1
  For: Weekdays SummerDesignDay,          !- Field 2
  Until: 06:00,                           !- Field 3
  0.0,                                    !- Field 4
  Until: 22:00,                           !- Field 5
  1.0,                                    !- Field 6
  Until: 24:00,                           !- Field 7
  0.0,                                    !- Field 8
  For: Saturday WinterDesignDay,          !- Field 9
  Until: 06:00,                           !- Field 10
  0.0,                                    !- Field 11
  Until: 18:00,                           !- Field 12
  1.0,                                    !- Field 13
  Until: 24:00,                           !- Field 14
  0.0,                                    !- Field 15
  For: AllOtherDays,                      !- Field 16
  Until: 24:00,                           !- Field 17
  0.0;                                    !- Field 18

OS:Schedule:Compact,
  {aaf4902b-45a7-4df5-96fc-4874cbb9497b}, !- Handle
  EQUIP-SCHED,                            !- Name
  {69219b31-2864-44e9-b679-95a98781e936}, !- Schedule Type Limits Name
  Through: 12/31,                         !- Field 1
  For: Weekdays,                          !- Field 2
  Until: 08:00,                           !- Field 3
  0.40,                                   !- Field 4
  Until: 12:00,                           !- Field 5
  0.90,                                   !- Field 6
  Until: 13:00,                           !- Field 7
  0.80,                                   !- Field 8
  Until: 17:00,                           !- Field 9
  0.90,                                   !- Field 10
  Until: 18:00,                           !- Field 11
  0.80,                                   !- Field 12
  Until: 20:00,                           !- Field 13
  0.60,                                   !- Field 14
  Until: 22:00,                           !- Field 15
  0.50,                                   !- Field 16